FoamFile
{
    version     2.0;
    format      ascii;
    class       dictionary;
    object      blockMeshDict;
}

convertToMeters 1;

vertices
(
    (0 0 0)
    (1 0 0)
    (1.5 0 0)
    (5 0 0)

    (0 0.75 0)
    (1 0.75 0)
    (1.5 0.75 0)
    (5 0.75 0)

    (0 1.25 0)
    (1 1.25 0)
    (1.5 1.25 0)
    (5 1.25 0)

    (0 2 0)
    (1 2 0)
    (1.5 2 0)
    (5 2 0)

    (0 0 0.01)
    (1 0 0.01)
    (1.5 0 0.01)
    (5 0 0.01)

    (0 0.75 0.01)
    (1 0.75 0.01)
    (1.5 0.75 0.01)
    (5 0.75 0.01)

    (0 1.25 0.01)
    (1 1.25 0.01)
    (1.5 1.25 0.01)
    (5 1.25 0.01)

    (0 2 0.01)
    (1 2 0.01)
    (1.5 2 0.01)
    (5 2 0.01)
);

blocks
(
    hex (0 1 5 4 16 17 21 20) (20 12 1) simpleGrading (1 1 1)
    hex (1 2 6 5 17 18 22 21) (10 12 1) simpleGrading (1 1 1)
    hex (2 3 7 6 18 19 23 22) (40 12 1) simpleGrading (1 1 1)

    hex (4 5 9 8 20 21 25 24) (20 4 1) simpleGrading (1 1 1)
    hex (6 7 11 10 22 23 27 26) (40 4 1) simpleGrading (1 1 1)

    hex (8 9 13 12 24 25 29 28) (20 12 1) simpleGrading (1 1 1)
    hex (9 10 14 13 25 26 30 29) (10 12 1) simpleGrading (1 1 1)
    hex (10 11 15 14 26 27 31 30) (40 12 1) simpleGrading (1 1 1)
);

boundary
(
    inlet
    {
        type patch;
        faces
        (
            (0 4 20 16)
            (4 8 24 20)
            (8 12 28 24)
        );
    }

    outlet
    {
        type patch;
        faces
        (
            (3 7 23 19)
            (7 11 27 23)
            (11 15 31 27)
        );
    }

    bottom
    {
        type symmetryPlane;
        faces
        (
            (0 1 17 16)
            (1 2 18 17)
            (2 3 19 18)
        );
    }

    top
    {
        type symmetryPlane;
        faces
        (
            (12 13 29 28)
            (13 14 30 29)
            (14 15 31 30)
        );
    }

    cylinder
    {
        type wall;
        faces
        (
            (5 9 25 21)
            (6 10 26 22)
            (5 6 22 21)
            (9 10 26 25)
        );
    }

    frontAndBack
    {
        type empty;
        faces
        (
            (0 1 5 4)
            (1 2 6 5)
            (2 3 7 6)
            (4 5 9 8)
            (6 7 11 10)
            (8 9 13 12)
            (9 10 14 13)
            (10 11 15 14)
            (16 17 21 20)
            (17 18 22 21)
            (18 19 23 22)
            (20 21 25 24)
            (22 23 27 26)
            (24 25 29 28)
            (25 26 30 29)
            (26 27 31 30)
        );
    }
);

mergePatchPairs
(
);
